<?xml version="1.0" encoding="UTF-8"?>

<!-- generated on Mon Dec 11 14:34:26 2023 by Eclipse SUMO netgenerate Version 1.4.0
<configuration xmlns:xsi="http://www.w3.org/2001/XMLSchema-instance" xsi:noNamespaceSchemaLocation="http://sumo.dlr.de/xsd/netgenerateConfiguration.xsd">

    <grid_network>
        <grid value="true"/>
        <grid.number value="7"/>
        <grid.length value="200"/>
    </grid_network>

    <output>
        <output-file value="grid7x7.net.xml"/>
    </output>

    <processing>
        <lefthand value="true"/>
    </processing>

    <building_defaults>
        <default.lanenumber value="2"/>
        <default.junctions.keep-clear value="false"/>
    </building_defaults>

</configuration>
-->

<net version="1.3" junctionCornerDetail="5" lefthand="true" limitTurnSpeed="5.50" xmlns:xsi="http://www.w3.org/2001/XMLSchema-instance" xsi:noNamespaceSchemaLocation="http://sumo.dlr.de/xsd/net_file.xsd">

    <location netOffset="0.00,-0.00" convBoundary="0.00,-0.00,1200.00,1200.00" origBoundary="0.00,0.00,1200.00,1200.00" projParameter="!"/>

    <edge id=":A0_0" function="internal">
        <lane id=":A0_0_0" index="0" speed="8.96" length="18.06" shape="6.40,-4.80 1.50,-4.10 -2.00,-2.00 -4.10,1.50 -4.80,6.40"/>
    </edge>
    <edge id=":A0_1" function="internal">
        <lane id=":A0_1_0" index="0" speed="7.66" length="12.90" shape="6.40,-1.60 2.90,-1.10 0.40,0.40 -1.10,2.90 -1.60,6.40"/>
    </edge>
    <edge id=":A0_2" function="internal">
        <lane id=":A0_2_0" index="0" speed="3.90" length="2.58" shape="4.80,6.40 4.90,5.70 5.20,5.20 5.70,4.90 6.40,4.80"/>
    </edge>
    <edge id=":A0_3" function="internal">
        <lane id=":A0_3_0" index="0" speed="6.08" length="7.74" shape="1.60,6.40 1.90,4.30 2.80,2.80 4.30,1.90 6.40,1.60"/>
    </edge>
    <edge id=":A1_0" function="internal">
        <lane id=":A1_0_0" index="0" speed="13.89" length="20.80" shape="-4.80,189.60 -4.80,210.40"/>
        <lane id=":A1_0_1" index="1" speed="13.89" length="20.80" shape="-1.60,189.60 -1.60,210.40"/>
    </edge>
    <edge id=":A1_2" function="internal">
        <lane id=":A1_2_0" index="0" speed="9.26" length="6.96" shape="-1.60,189.60 -0.85,194.85 0.00,196.27"/>
    </edge>
    <edge id=":A1_3" function="internal">
        <lane id=":A1_3_0" index="0" speed="3.65" length="2.34" shape="-1.60,189.60 -0.80,190.80 0.00,191.20"/>
    </edge>
    <edge id=":A1_11" function="internal">
        <lane id=":A1_11_0" index="0" speed="9.26" length="12.40" shape="0.00,196.27 1.40,198.60 5.15,200.85 10.40,201.60"/>
    </edge>
    <edge id=":A1_12" function="internal">
        <lane id=":A1_12_0" index="0" speed="3.65" length="2.34" shape="0.00,191.20 0.80,190.80 1.60,189.60"/>
    </edge>
    <edge id=":A1_4" function="internal">
        <lane id=":A1_4_0" index="0" speed="6.51" length="9.03" shape="10.40,195.20 7.95,194.85 6.20,193.80 5.15,192.05 4.80,189.60"/>
    </edge>
    <edge id=":A1_5" function="internal">
        <lane id=":A1_5_0" index="0" speed="9.26" length="19.35" shape="10.40,198.40 5.15,199.15 1.40,201.40 -0.85,205.15 -1.60,210.40"/>
    </edge>
    <edge id=":A1_6" function="internal">
        <lane id=":A1_6_0" index="0" speed="3.65" length="4.67" shape="10.40,198.40 9.20,199.20 8.80,200.00 9.20,200.80 10.40,201.60"/>
    </edge>
    <edge id=":A1_7" function="internal">
        <lane id=":A1_7_0" index="0" speed="6.51" length="9.03" shape="4.80,210.40 5.15,207.95 6.20,206.20 7.95,205.15 10.40,204.80"/>
    </edge>
    <edge id=":A1_8" function="internal">
        <lane id=":A1_8_0" index="0" speed="13.89" length="20.80" shape="4.80,210.40 4.80,189.60"/>
        <lane id=":A1_8_1" index="1" speed="13.89" length="20.80" shape="1.60,210.40 1.60,189.60"/>
    </edge>
    <edge id=":A1_10" function="internal">
        <lane id=":A1_10_0" index="0" speed="3.65" length="2.34" shape="1.60,210.40 0.80,209.20 0.00,208.80"/>
    </edge>
    <edge id=":A1_13" function="internal">
        <lane id=":A1_13_0" index="0" speed="3.65" length="2.34" shape="0.00,208.80 -0.80,209.20 -1.60,210.40"/>
    </edge>
    <edge id=":A2_0" function="internal">
        <lane id=":A2_0_0" index="0" speed="13.89" length="20.80" shape="-4.80,389.60 -4.80,410.40"/>
        <lane id=":A2_0_1" index="1" speed="13.89" length="20.80" shape="-1.60,389.60 -1.60,410.40"/>
    </edge>
    <edge id=":A2_2" function="internal">
        <lane id=":A2_2_0" index="0" speed="9.26" length="6.96" shape="-1.60,389.60 -0.85,394.85 0.00,396.27"/>
    </edge>
    <edge id=":A2_3" function="internal">
        <lane id=":A2_3_0" index="0" speed="3.65" length="2.34" shape="-1.60,389.60 -0.80,390.80 0.00,391.20"/>
    </edge>
    <edge id=":A2_11" function="internal">
        <lane id=":A2_11_0" index="0" speed="9.26" length="12.40" shape="0.00,396.27 1.40,398.60 5.15,400.85 10.40,401.60"/>
    </edge>
    <edge id=":A2_12" function="internal">
        <lane id=":A2_12_0" index="0" speed="3.65" length="2.34" shape="0.00,391.20 0.80,390.80 1.60,389.60"/>
    </edge>
    <edge id=":A2_4" function="internal">
        <lane id=":A2_4_0" index="0" speed="6.51" length="9.03" shape="10.40,395.20 7.95,394.85 6.20,393.80 5.15,392.05 4.80,389.60"/>
    </edge>
    <edge id=":A2_5" function="internal">
        <lane id=":A2_5_0" index="0" speed="9.26" length="19.35" shape="10.40,398.40 5.15,399.15 1.40,401.40 -0.85,405.15 -1.60,410.40"/>
    </edge>
    <edge id=":A2_6" function="internal">
        <lane id=":A2_6_0" index="0" speed="3.65" length="4.67" shape="10.40,398.40 9.20,399.20 8.80,400.00 9.20,400.80 10.40,401.60"/>
    </edge>
    <edge id=":A2_7" function="internal">
        <lane id=":A2_7_0" index="0" speed="6.51" length="9.03" shape="4.80,410.40 5.15,407.95 6.20,406.20 7.95,405.15 10.40,404.80"/>
    </edge>
    <edge id=":A2_8" function="internal">
        <lane id=":A2_8_0" index="0" speed="13.89" length="20.80" shape="4.80,410.40 4.80,389.60"/>
        <lane id=":A2_8_1" index="1" speed="13.89" length="20.80" shape="1.60,410.40 1.60,389.60"/>
    </edge>
    <edge id=":A2_10" function="internal">
        <lane id=":A2_10_0" index="0" speed="3.65" length="2.34" shape="1.60,410.40 0.80,409.20 0.00,408.80"/>
    </edge>
    <edge id=":A2_13" function="internal">
        <lane id=":A2_13_0" index="0" speed="3.65" length="2.34" shape="0.00,408.80 -0.80,409.20 -1.60,410.40"/>
    </edge>
    <edge id=":A3_0" function="internal">
        <lane id=":A3_0_0" index="0" speed="13.89" length="20.80" shape="-4.80,589.60 -4.80,610.40"/>
        <lane id=":A3_0_1" index="1" speed="13.89" length="20.80" shape="-1.60,589.60 -1.60,610.40"/>
    </edge>
    <edge id=":A3_2" function="internal">
        <lane id=":A3_2_0" index="0" speed="9.26" length="6.96" shape="-1.60,589.60 -0.85,594.85 -0.00,596.27"/>
    </edge>
    <edge id=":A3_3" function="internal">
        <lane id=":A3_3_0" index="0" speed="3.65" length="2.34" shape="-1.60,589.60 -0.80,590.80 0.00,591.20"/>
    </edge>
    <edge id=":A3_11" function="internal">
        <lane id=":A3_11_0" index="0" speed="9.26" length="12.40" shape="-0.00,596.27 1.40,598.60 5.15,600.85 10.40,601.60"/>
    </edge>
    <edge id=":A3_12" function="internal">
        <lane id=":A3_12_0" index="0" speed="3.65" length="2.34" shape="0.00,591.20 0.80,590.80 1.60,589.60"/>
    </edge>
    <edge id=":A3_4" function="internal">
        <lane id=":A3_4_0" index="0" speed="6.51" length="9.03" shape="10.40,595.20 7.95,594.85 6.20,593.80 5.15,592.05 4.80,589.60"/>
    </edge>
    <edge id=":A3_5" function="internal">
        <lane id=":A3_5_0" index="0" speed="9.26" length="19.35" shape="10.40,598.40 5.15,599.15 1.40,601.40 -0.85,605.15 -1.60,610.40"/>
    </edge>
    <edge id=":A3_6" function="internal">
        <lane id=":A3_6_0" index="0" speed="3.65" length="4.67" shape="10.40,598.40 9.20,599.20 8.80,600.00 9.20,600.80 10.40,601.60"/>
    </edge>
    <edge id=":A3_7" function="internal">
        <lane id=":A3_7_0" index="0" speed="6.51" length="9.03" shape="4.80,610.40 5.15,607.95 6.20,606.20 7.95,605.15 10.40,604.80"/>
    </edge>
    <edge id=":A3_8" function="internal">
        <lane id=":A3_8_0" index="0" speed="13.89" length="20.80" shape="4.80,610.40 4.80,589.60"/>
        <lane id=":A3_8_1" index="1" speed="13.89" length="20.80" shape="1.60,610.40 1.60,589.60"/>
    </edge>
    <edge id=":A3_10" function="internal">
        <lane id=":A3_10_0" index="0" speed="3.65" length="2.34" shape="1.60,610.40 0.80,609.20 0.00,608.80"/>
    </edge>
    <edge id=":A3_13" function="internal">
        <lane id=":A3_13_0" index="0" speed="3.65" length="2.34" shape="0.00,608.80 -0.80,609.20 -1.60,610.40"/>
    </edge>
    <edge id=":A4_0" function="internal">
        <lane id=":A4_0_0" index="0" speed="13.89" length="20.80" shape="-4.80,789.60 -4.80,810.40"/>
        <lane id=":A4_0_1" index="1" speed="13.89" length="20.80" shape="-1.60,789.60 -1.60,810.40"/>
    </edge>
    <edge id=":A4_2" function="internal">
        <lane id=":A4_2_0" index="0" speed="9.26" length="6.96" shape="-1.60,789.60 -0.85,794.85 -0.00,796.27"/>
    </edge>
    <edge id=":A4_3" function="internal">
        <lane id=":A4_3_0" index="0" speed="3.65" length="2.34" shape="-1.60,789.60 -0.80,790.80 0.00,791.20"/>
    </edge>
    <edge id=":A4_11" function="internal">
        <lane id=":A4_11_0" index="0" speed="9.26" length="12.40" shape="-0.00,796.27 1.40,798.60 5.15,800.85 10.40,801.60"/>
    </edge>
    <edge id=":A4_12" function="internal">
        <lane id=":A4_12_0" index="0" speed="3.65" length="2.34" shape="0.00,791.20 0.80,790.80 1.60,789.60"/>
    </edge>
    <edge id=":A4_4" function="internal">
        <lane id=":A4_4_0" index="0" speed="6.51" length="9.03" shape="10.40,795.20 7.95,794.85 6.20,793.80 5.15,792.05 4.80,789.60"/>
    </edge>
    <edge id=":A4_5" function="internal">
        <lane id=":A4_5_0" index="0" speed="9.26" length="19.35" shape="10.40,798.40 5.15,799.15 1.40,801.40 -0.85,805.15 -1.60,810.40"/>
    </edge>
    <edge id=":A4_6" function="internal">
        <lane id=":A4_6_0" index="0" speed="3.65" length="4.67" shape="10.40,798.40 9.20,799.20 8.80,800.00 9.20,800.80 10.40,801.60"/>
    </edge>
    <edge id=":A4_7" function="internal">
        <lane id=":A4_7_0" index="0" speed="6.51" length="9.03" shape="4.80,810.40 5.15,807.95 6.20,806.20 7.95,805.15 10.40,804.80"/>
    </edge>
    <edge id=":A4_8" function="internal">
        <lane id=":A4_8_0" index="0" speed="13.89" length="20.80" shape="4.80,810.40 4.80,789.60"/>
        <lane id=":A4_8_1" index="1" speed="13.89" length="20.80" shape="1.60,810.40 1.60,789.60"/>
    </edge>
    <edge id=":A4_10" function="internal">
        <lane id=":A4_10_0" index="0" speed="3.65" length="2.34" shape="1.60,810.40 0.80,809.20 0.00,808.80"/>
    </edge>
    <edge id=":A4_13" function="internal">
        <lane id=":A4_13_0" index="0" speed="3.65" length="2.34" shape="0.00,808.80 -0.80,809.20 -1.60,810.40"/>
    </edge>
    <edge id=":A5_0" function="internal">
        <lane id=":A5_0_0" index="0" speed="13.89" length="20.80" shape="-4.80,989.60 -4.80,1010.40"/>
        <lane id=":A5_0_1" index="1" speed="13.89" length="20.80" shape="-1.60,989.60 -1.60,1010.40"/>
    </edge>
    <edge id=":A5_2" function="internal">
        <lane id=":A5_2_0" index="0" speed="9.26" length="6.96" shape="-1.60,989.60 -0.85,994.85 -0.00,996.27"/>
    </edge>
    <edge id=":A5_3" function="internal">
        <lane id=":A5_3_0" index="0" speed="3.65" length="2.34" shape="-1.60,989.60 -0.80,990.80 0.00,991.20"/>
    </edge>
    <edge id=":A5_11" function="internal">
        <lane id=":A5_11_0" index="0" speed="9.26" length="12.40" shape="-0.00,996.27 1.40,998.60 5.15,1000.85 10.40,1001.60"/>
    </edge>
    <edge id=":A5_12" function="internal">
        <lane id=":A5_12_0" index="0" speed="3.65" length="2.34" shape="0.00,991.20 0.80,990.80 1.60,989.60"/>
    </edge>
    <edge id=":A5_4" function="internal">
        <lane id=":A5_4_0" index="0" speed="6.51" length="9.03" shape="10.40,995.20 7.95,994.85 6.20,993.80 5.15,992.05 4.80,989.60"/>
    </edge>
    <edge id=":A5_5" function="internal">
        <lane id=":A5_5_0" index="0" speed="9.26" length="19.35" shape="10.40,998.40 5.15,999.15 1.40,1001.40 -0.85,1005.15 -1.60,1010.40"/>
    </edge>
    <edge id=":A5_6" function="internal">
        <lane id=":A5_6_0" index="0" speed="3.65" length="4.67" shape="10.40,998.40 9.20,999.20 8.80,1000.00 9.20,1000.80 10.40,1001.60"/>
    </edge>
    <edge id=":A5_7" function="internal">
        <lane id=":A5_7_0" index="0" speed="6.51" length="9.03" shape="4.80,1010.40 5.15,1007.95 6.20,1006.20 7.95,1005.15 10.40,1004.80"/>
    </edge>
    <edge id=":A5_8" function="internal">
        <lane id=":A5_8_0" index="0" speed="13.89" length="20.80" shape="4.80,1010.40 4.80,989.60"/>
        <lane id=":A5_8_1" index="1" speed="13.89" length="20.80" shape="1.60,1010.40 1.60,989.60"/>
    </edge>
    <edge id=":A5_10" function="internal">
        <lane id=":A5_10_0" index="0" speed="3.65" length="2.34" shape="1.60,1010.40 0.80,1009.20 0.00,1008.80"/>
    </edge>
    <edge id=":A5_13" function="internal">
        <lane id=":A5_13_0" index="0" speed="3.65" length="2.34" shape="0.00,1008.80 -0.80,1009.20 -1.60,1010.40"/>
    </edge>
    <edge id=":A6_0" function="internal">
        <lane id=":A6_0_0" index="0" speed="8.96" length="18.06" shape="-4.80,1193.60 -4.10,1198.50 -2.00,1202.00 1.50,1204.10 6.40,1204.80"/>
    </edge>
    <edge id=":A6_1" function="internal">
        <lane id=":A6_1_0" index="0" speed="7.66" length="12.90" shape="-1.60,1193.60 -1.10,1197.10 0.40,1199.60 2.90,1201.10 6.40,1201.60"/>
    </edge>
    <edge id=":A6_2" function="internal">
        <lane id=":A6_2_0" index="0" speed="3.90" length="2.58" shape="6.40,1195.20 5.70,1195.10 5.20,1194.80 4.90,1194.30 4.80,1193.60"/>
    </edge>
    <edge id=":A6_3" function="internal">
        <lane id=":A6_3_0" index="0" speed="6.08" length="7.74" shape="6.40,1198.40 4.30,1198.10 2.80,1197.20 1.90,1195.70 1.60,1193.60"/>
    </edge>
    <edge id=":B0_0" function="internal">
        <lane id=":B0_0_0" index="0" speed="13.89" length="20.80" shape="210.40,-4.80 189.60,-4.80"/>
        <lane id=":B0_0_1" index="1" speed="13.89" length="20.80" shape="210.40,-1.60 189.60,-1.60"/>
    </edge>
    <edge id=":B0_2" function="internal">
        <lane id=":B0_2_0" index="0" speed="9.26" length="6.96" shape="210.40,-1.60 205.15,-0.85 203.73,-0.00"/>
    </edge>
    <edge id=":B0_3" function="internal">
        <lane id=":B0_3_0" index="0" speed="3.65" length="2.34" shape="210.40,-1.60 209.20,-0.80 208.80,-0.00"/>
    </edge>
    <edge id=":B0_11" function="internal">
        <lane id=":B0_11_0" index="0" speed="9.26" length="12.40" shape="203.73,-0.00 201.40,1.40 199.15,5.15 198.40,10.40"/>
    </edge>
    <edge id=":B0_12" function="internal">
        <lane id=":B0_12_0" index="0" speed="3.65" length="2.34" shape="208.80,-0.00 209.20,0.80 210.40,1.60"/>
    </edge>
    <edge id=":B0_4" function="internal">
        <lane id=":B0_4_0" index="0" speed="6.51" length="9.03" shape="204.80,10.40 205.15,7.95 206.20,6.20 207.95,5.15 210.40,4.80"/>
    </edge>
    <edge id=":B0_5" function="internal">
        <lane id=":B0_5_0" index="0" speed="9.26" length="19.35" shape="201.60,10.40 200.85,5.15 198.60,1.40 194.85,-0.85 189.60,-1.60"/>
    </edge>
    <edge id=":B0_6" function="internal">
        <lane id=":B0_6_0" index="0" speed="3.65" length="4.67" shape="201.60,10.40 200.80,9.20 200.00,8.80 199.20,9.20 198.40,10.40"/>
    </edge>
    <edge id=":B0_7" function="internal">
        <lane id=":B0_7_0" index="0" speed="6.51" length="9.03" shape="189.60,4.80 192.05,5.15 193.80,6.20 194.85,7.95 195.20,10.40"/>
    </edge>
    <edge id=":B0_8" function="internal">
        <lane id=":B0_8_0" index="0" speed="13.89" length="20.80" shape="189.60,4.80 210.40,4.80"/>
        <lane id=":B0_8_1" index="1" speed="13.89" length="20.80" shape="189.60,1.60 210.40,1.60"/>
    </edge>
    <edge id=":B0_10" function="internal">
        <lane id=":B0_10_0" index="0" speed="3.65" length="2.34" shape="189.60,1.60 190.80,0.80 191.20,-0.00"/>
    </edge>
    <edge id=":B0_13" function="internal">
        <lane id=":B0_13_0" index="0" speed="3.65" length="2.34" shape="191.20,-0.00 190.80,-0.80 189.60,-1.60"/>
    </edge>
    <edge id=":B1_0" function="internal">
        <lane id=":B1_0_0" index="0" speed="6.51" length="9.03" shape="195.20,189.60 194.85,192.05 193.80,193.80 192.05,194.85 189.60,195.20"/>
    </edge>
    <edge id=":B1_1" function="internal">
        <lane id=":B1_1_0" index="0" speed="13.89" length="20.80" shape="195.20,189.60 195.20,210.40"/>
        <lane id=":B1_1_1" index="1" speed="13.89" length="20.80" shape="198.40,189.60 198.40,210.40"/>
    </edge>
    <edge id=":B1_3" function="internal">
        <lane id=":B1_3_0" index="0" speed="9.26" length="6.96" shape="198.40,189.60 199.15,194.85 200.00,196.27"/>
    </edge>
    <edge id=":B1_4" function="internal">
        <lane id=":B1_4_0" index="0" speed="3.65" length="2.34" shape="198.40,189.60 199.20,190.80 200.00,191.20"/>
    </edge>
    <edge id=":B1_20" function="internal">
        <lane id=":B1_20_0" index="0" speed="9.26" length="12.40" shape="200.00,196.27 201.40,198.60 205.15,200.85 210.40,201.60"/>
    </edge>
    <edge id=":B1_21" function="internal">
        <lane id=":B1_21_0" index="0" speed="3.65" length="2.34" shape="200.00,191.20 200.80,190.80 201.60,189.60"/>
    </edge>
    <edge id=":B1_5" function="internal">
        <lane id=":B1_5_0" index="0" speed="6.51" length="9.03" shape="210.40,195.20 207.95,194.85 206.20,193.80 205.15,192.05 204.80,189.60"/>
    </edge>
    <edge id=":B1_6" function="internal">
        <lane id=":B1_6_0" index="0" speed="13.89" length="20.80" shape="210.40,195.20 189.60,195.20"/>
        <lane id=":B1_6_1" index="1" speed="13.89" length="20.80" shape="210.40,198.40 189.60,198.40"/>
    </edge>
    <edge id=":B1_8" function="internal">
        <lane id=":B1_8_0" index="0" speed="9.26" length="19.35" shape="210.40,198.40 205.15,199.15 201.40,201.40 199.15,205.15 198.40,210.40"/>
    </edge>
    <edge id=":B1_9" function="internal">
        <lane id=":B1_9_0" index="0" speed="3.65" length="4.67" shape="210.40,198.40 209.20,199.20 208.80,200.00 209.20,200.80 210.40,201.60"/>
    </edge>
    <edge id=":B1_10" function="internal">
        <lane id=":B1_10_0" index="0" speed="6.51" length="9.03" shape="204.80,210.40 205.15,207.95 206.20,206.20 207.95,205.15 210.40,204.80"/>
    </edge>
    <edge id=":B1_11" function="internal">
        <lane id=":B1_11_0" index="0" speed="13.89" length="20.80" shape="204.80,210.40 204.80,189.60"/>
        <lane id=":B1_11_1" index="1" speed="13.89" length="20.80" shape="201.60,210.40 201.60,189.60"/>
    </edge>
    <edge id=":B1_13" function="internal">
        <lane id=":B1_13_0" index="0" speed="9.26" length="6.96" shape="201.60,210.40 200.85,205.15 200.00,203.73"/>
    </edge>
    <edge id=":B1_14" function="internal">
        <lane id=":B1_14_0" index="0" speed="3.65" length="2.34" shape="201.60,210.40 200.80,209.20 200.00,208.80"/>
    </edge>
    <edge id=":B1_22" function="internal">
        <lane id=":B1_22_0" index="0" speed="9.26" length="12.40" shape="200.00,203.73 198.60,201.40 194.85,199.15 189.60,198.40"/>
    </edge>
    <edge id=":B1_23" function="internal">
        <lane id=":B1_23_0" index="0" speed="3.65" length="2.34" shape="200.00,208.80 199.20,209.20 198.40,210.40"/>
    </edge>
    <edge id=":B1_15" function="internal">
        <lane id=":B1_15_0" index="0" speed="6.51" length="9.03" shape="189.60,204.80 192.05,205.15 193.80,206.20 194.85,207.95 195.20,210.40"/>
    </edge>
    <edge id=":B1_16" function="internal">
        <lane id=":B1_16_0" index="0" speed="13.89" length="20.80" shape="189.60,204.80 210.40,204.80"/>
        <lane id=":B1_16_1" index="1" speed="13.89" length="20.80" shape="189.60,201.60 210.40,201.60"/>
    </edge>
    <edge id=":B1_18" function="internal">
        <lane id=":B1_18_0" index="0" speed="9.26" length="19.35" shape="189.60,201.60 194.85,200.85 198.60,198.60 200.85,194.85 201.60,189.60"/>
    </edge>
    <edge id=":B1_19" function="internal">
        <lane id=":B1_19_0" index="0" speed="3.65" length="4.67" shape="189.60,201.60 190.80,200.80 191.20,200.00 190.80,199.20 189.60,198.40"/>
    </edge>
    <edge id=":B2_0" function="internal">
        <lane id=":B2_0_0" index="0" speed="6.51" length="9.03" shape="195.20,389.60 194.85,392.05 193.80,393.80 192.05,394.85 189.60,395.20"/>
    </edge>
    <edge id=":B2_1" function="internal">
        <lane id=":B2_1_0" index="0" speed="13.89" length="20.80" shape="195.20,389.60 195.20,410.40"/>
        <lane id=":B2_1_1" index="1" speed="13.89" length="20.80" shape="198.40,389.60 198.40,410.40"/>
    </edge>
    <edge id=":B2_3" function="internal">
        <lane id=":B2_3_0" index="0" speed="9.26" length="6.96" shape="198.40,389.60 199.15,394.85 200.00,396.27"/>
    </edge>
    <edge id=":B2_4" function="internal">
        <lane id=":B2_4_0" index="0" speed="3.65" length="2.34" shape="198.40,389.60 199.20,390.80 200.00,391.20"/>
    </edge>
    <edge id=":B2_20" function="internal">
        <lane id=":B2_20_0" index="0" speed="9.26" length="12.40" shape="200.00,396.27 201.40,398.60 205.15,400.85 210.40,401.60"/>
    </edge>
    <edge id=":B2_21" function="internal">
        <lane id=":B2_21_0" index="0" speed="3.65" length="2.34" shape="200.00,391.20 200.80,390.80 201.60,389.60"/>
    </edge>
    <edge id=":B2_5" function="internal">
        <lane id=":B2_5_0" index="0" speed="6.51" length="9.03" shape="210.40,395.20 207.95,394.85 206.20,393.80 205.15,392.05 204.80,389.60"/>
    </edge>
    <edge id=":B2_6" function="internal">
        <lane id=":B2_6_0" index="0" speed="13.89" length="20.80" shape="210.40,395.20 189.60,395.20"/>
        <lane id=":B2_6_1" index="1" speed="13.89" length="20.80" shape="210.40,398.40 189.60,398.40"/>
    </edge>
    <edge id=":B2_8" function="internal">
        <lane id=":B2_8_0" index="0" speed="9.26" length="19.35" shape="210.40,398.40 205.15,399.15 201.40,401.40 199.15,405.15 198.40,410.40"/>
    </edge>
    <edge id=":B2_9" function="internal">
        <lane id=":B2_9_0" index="0" speed="3.65" length="4.67" shape="210.40,398.40 209.20,399.20 208.80,400.00 209.20,400.80 210.40,401.60"/>
    </edge>
    <edge id=":B2_10" function="internal">
        <lane id=":B2_10_0" index="0" speed="6.51" length="9.03" shape="204.80,410.40 205.15,407.95 206.20,406.20 207.95,405.15 210.40,404.80"/>
    </edge>
    <edge id=":B2_11" function="internal">
        <lane id=":B2_11_0" index="0" speed="13.89" length="20.80" shape="204.80,410.40 204.80,389.60"/>
        <lane id=":B2_11_1" index="1" speed="13.89" length="20.80" shape="201.60,410.40 201.60,389.60"/>
    </edge>
    <edge id=":B2_13" function="internal">
        <lane id=":B2_13_0" index="0" speed="9.26" length="6.96" shape="201.60,410.40 200.85,405.15 200.00,403.73"/>
    </edge>
    <edge id=":B2_14" function="internal">
        <lane id=":B2_14_0" index="0" speed="3.65" length="2.34" shape="201.60,410.40 200.80,409.20 200.00,408.80"/>
    </edge>
    <edge id=":B2_22" function="internal">
        <lane id=":B2_22_0" index="0" speed="9.26" length="12.40" shape="200.00,403.73 198.60,401.40 194.85,399.15 189.60,398.40"/>
    </edge>
    <edge id=":B2_23" function="internal">
        <lane id=":B2_23_0" index="0" speed="3.65" length="2.34" shape="200.00,408.80 199.20,409.20 198.40,410.40"/>
    </edge>
    <edge id=":B2_15" function="internal">
        <lane id=":B2_15_0" index="0" speed="6.51" length="9.03" shape="189.60,404.80 192.05,405.15 193.80,406.20 194.85,407.95 195.20,410.40"/>
    </edge>
    <edge id=":B2_16" function="internal">
        <lane id=":B2_16_0" index="0" speed="13.89" length="20.80" shape="189.60,404.80 210.40,404.80"/>
        <lane id=":B2_16_1" index="1" speed="13.89" length="20.80" shape="189.60,401.60 210.40,401.60"/>
    </edge>
    <edge id=":B2_18" function="internal">
        <lane id=":B2_18_0" index="0" speed="9.26" length="19.35" shape="189.60,401.60 194.85,400.85 198.60,398.60 200.85,394.85 201.60,389.60"/>
    </edge>
    <edge id=":B2_19" function="internal">
        <lane id=":B2_19_0" index="0" speed="3.65" length="4.67" shape="189.60,401.60 190.80,400.80 191.20,400.00 190.80,399.20 189.60,398.40"/>
    </edge>
    <edge id=":B3_0" function="internal">
        <lane id=":B3_0_0" index="0" speed="6.51" length="9.03" shape="195.20,589.60 194.85,592.05 193.80,593.80 192.05,594.85 189.60,595.20"/>
    </edge>
    <edge id=":B3_1" function="internal">
        <lane id=":B3_1_0" index="0" speed="13.89" length="20.80" shape="195.20,589.60 195.20,610.40"/>
        <lane id=":B3_1_1" index="1" speed="13.89" length="20.80" shape="198.40,589.60 198.40,610.40"/>
    </edge>
    <edge id=":B3_3" function="internal">
        <lane id=":B3_3_0" index="0" speed="9.26" length="6.96" shape="198.40,589.60 199.15,594.85 200.00,596.27"/>
    </edge>
    <edge id=":B3_4" function="internal">
        <lane id=":B3_4_0" index="0" speed="3.65" length="2.34" shape="198.40,589.60 199.20,590.80 200.00,591.20"/>
    </edge>
    <edge id=":B3_20" function="internal">
        <lane id=":B3_20_0" index="0" speed="9.26" length="12.40" shape="200.00,596.27 201.40,598.60 205.15,600.85 210.40,601.60"/>
    </edge>
    <edge id=":B3_21" function="internal">
        <lane id=":B3_21_0" index="0" speed="3.65" length="2.34" shape="200.00,591.20 200.80,590.80 201.60,589.60"/>
    </edge>
    <edge id=":B3_5" function="internal">
        <lane id=":B3_5_0" index="0" speed="6.51" length="9.03" shape="210.40,595.20 207.95,594.85 206.20,593.80 205.15,592.05 204.80,589.60"/>
    </edge>
    <edge id=":B3_6" function="internal">
        <lane id=":B3_6_0" index="0" speed="13.89" length="20.80" shape="210.40,595.20 189.60,595.20"/>
        <lane id=":B3_6_1" index="1" speed="13.89" length="20.80" shape="210.40,598.40 189.60,598.40"/>
    </edge>
    <edge id=":B3_8" function="internal">
        <lane id=":B3_8_0" index="0" speed="9.26" length="19.35" shape="210.40,598.40 205.15,599.15 201.40,601.40 199.15,605.15 198.40,610.40"/>
    </edge>
    <edge id=":B3_9" function="internal">
        <lane id=":B3_9_0" index="0" speed="3.65" length="4.67" shape="210.40,598.40 209.20,599.20 208.80,600.00 209.20,600.80 210.40,601.60"/>
    </edge>
    <edge id=":B3_10" function="internal">
        <lane id=":B3_10_0" index="0" speed="6.51" length="9.03" shape="204.80,610.40 205.15,607.95 206.20,606.20 207.95,605.15 210.40,604.80"/>
    </edge>
    <edge id=":B3_11" function="internal">
        <lane id=":B3_11_0" index="0" speed="13.89" length="20.80" shape="204.80,610.40 204.80,589.60"/>
        <lane id=":B3_11_1" index="1" speed="13.89" length="20.80" shape="201.60,610.40 201.60,589.60"/>
    </edge>
    <edge id=":B3_13" function="internal">
        <lane id=":B3_13_0" index="0" speed="9.26" length="6.96" shape="201.60,610.40 200.85,605.15 200.00,603.73"/>
    </edge>
    <edge id=":B3_14" function="internal">
        <lane id=":B3_14_0" index="0" speed="3.65" length="2.34" shape="201.60,610.40 200.80,609.20 200.00,608.80"/>
    </edge>
    <edge id=":B3_22" function="internal">
        <lane id=":B3_22_0" index="0" speed="9.26" length="12.40" shape="200.00,603.73 198.60,601.40 194.85,599.15 189.60,598.40"/>
    </edge>
    <edge id=":B3_23" function="internal">
        <lane id=":B3_23_0" index="0" speed="3.65" length="2.34" shape="200.00,608.80 199.20,609.20 198.40,610.40"/>
    </edge>
    <edge id=":B3_15" function="internal">
        <lane id=":B3_15_0" index="0" speed="6.51" length="9.03" shape="189.60,604.80 192.05,605.15 193.80,606.20 194.85,607.95 195.20,610.40"/>
    </edge>
    <edge id=":B3_16" function="internal">
        <lane id=":B3_16_0" index="0" speed="13.89" length="20.80" shape="189.60,604.80 210.40,604.80"/>
        <lane id=":B3_16_1" index="1" speed="13.89" length="20.80" shape="189.60,601.60 210.40,601.60"/>
    </edge>
    <edge id=":B3_18" function="internal">
        <lane id=":B3_18_0" index="0" speed="9.26" length="19.35" shape="189.60,601.60 194.85,600.85 198.60,598.60 200.85,594.85 201.60,589.60"/>
    </edge>
    <edge id=":B3_19" function="internal">
        <lane id=":B3_19_0" index="0" speed="3.65" length="4.67" shape="189.60,601.60 190.80,600.80 191.20,600.00 190.80,599.20 189.60,598.40"/>
    </edge>
    <edge id=":B4_0" function="internal">
        <lane id=":B4_0_0" index="0" speed="6.51" length="9.03" shape="195.20,789.60 194.85,792.05 193.80,793.80 192.05,794.85 189.60,795.20"/>
    </edge>
    <edge id=":B4_1" function="internal">
        <lane id=":B4_1_0" index="0" speed="13.89" length="20.80" shape="195.20,789.60 195.20,810.40"/>
        <lane id=":B4_1_1" index="1" speed="13.89" length="20.80" shape="198.40,789.60 198.40,810.40"/>
    </edge>
    <edge id=":B4_3" function="internal">
        <lane id=":B4_3_0" index="0" speed="9.26" length="6.96" shape="198.40,789.60 199.15,794.85 200.00,796.27"/>
    </edge>
    <edge id=":B4_4" function="internal">
        <lane id=":B4_4_0" index="0" speed="3.65" length="2.34" shape="198.40,789.60 199.20,790.80 200.00,791.20"/>
    </edge>
    <edge id=":B4_20" function="internal">
        <lane id=":B4_20_0" index="0" speed="9.26" length="12.40" shape="200.00,796.27 201.40,798.60 205.15,800.85 210.40,801.60"/>
    </edge>
    <edge id=":B4_21" function="internal">
        <lane id=":B4_21_0" index="0" speed="3.65" length="2.34" shape="200.00,791.20 200.80,790.80 201.60,789.60"/>
    </edge>
    <edge id=":B4_5" function="internal">
        <lane id=":B4_5_0" index="0" speed="6.51" length="9.03" shape="210.40,795.20 207.95,794.85 206.20,793.80 205.15,792.05 204.80,789.60"/>
    </edge>
    <edge id=":B4_6" function="internal">
        <lane id=":B4_6_0" index="0" speed="13.89" length="20.80" shape="210.40,795.20 189.60,795.20"/>